! Test Case to model Pepiot thesis example Chemkin-II format
ELEMENTS                                                                        
O  H  C                                                                  
END                                                                             
SPECIES                                                                         
H2      H       O       O2      OH      H2O     HO2     H2O2   
C       CH      CH2     CO      CO2     HCO                      
END
QSS
O2      H2O     HO2     H2O2    C       CH      CH2     CO    
END
TRANS ALL
H2                 1    38.000     2.920     0.000     0.790   280.000          
H                  0   145.000     2.050     0.000     0.000     0.000          
O                  0    80.000     2.750     0.000     0.000     0.000          
O2                 1   107.400     3.458     0.000     1.600     3.800          
OH                 1    80.000     2.750     0.000     0.000     0.000          
H2O                2   572.400     2.605     1.844     0.000     4.000          
HO2                2   107.400     3.458     0.000     0.000     1.000          
H2O2               2   107.400     3.458     0.000     0.000     3.800          
C                  0    71.400     3.298     0.000     0.000     0.000          
CH                 1    80.000     2.750     0.000     0.000     0.000          
CH2                1   144.000     3.800     0.000     0.000     0.000          
CO                 1    98.100     3.650     0.000     1.950     1.800          
CO2                1   244.000     3.763     0.000     2.650     2.100          
HCO                2   498.000     3.590     0.000     0.000     0.000          
END
REACTIONS                                                                       
O+HO2=>OH+O2                            2.000E+13    0.000      0.00
H+HO2=>O+H2O                            3.970E+12    0.000    671.00
H+H2O2<=>OH+H2O                          1.000E+13    0.000   3600.00
O+CH=>H+CO                              5.700E+13    0.000      0.00
H+CH<=>C+H2                              1.100E+14    0.000      0.00
O+CH2<=>H+HCO                            8.000E+13    0.000      0.00
H+O2<=>O+OH                              8.300E+13    0.000  14413.00
H+HO2<=>2OH                              1.340E+14    0.000    635.00
OH+CO<=>H+CO2                            4.760E+07    1.228     70.00
OH+CH<=>H+HCO                            3.000E+13    0.000      0.00
END                                                                             
